Version 4.1
SHEET 1 880 680
WIRE -544 -48 -544 -64
WIRE -432 -48 -432 -64
WIRE -288 -48 -288 -64
WIRE 224 -48 16 -48
WIRE 544 -48 304 -48
WIRE -288 48 -288 32
WIRE -544 64 -544 32
WIRE -496 64 -544 64
WIRE -432 64 -432 32
WIRE -432 64 -496 64
WIRE -496 80 -496 64
WIRE -112 96 -160 96
WIRE 16 96 16 -48
WIRE 16 96 -32 96
WIRE 64 96 16 96
WIRE 240 112 128 112
WIRE 336 112 240 112
WIRE -160 128 -160 96
WIRE 64 128 16 128
WIRE 496 128 400 128
WIRE 544 128 544 -48
WIRE 544 128 496 128
WIRE 336 144 288 144
WIRE 16 160 16 128
WIRE 288 224 288 144
WIRE 416 224 288 224
WIRE 544 224 544 128
WIRE 544 224 496 224
WIRE 288 240 288 224
WIRE 288 352 288 320
FLAG 16 160 Vin
IOPIN 16 160 In
FLAG 288 352 0
FLAG -160 128 0
FLAG 96 80 V+
IOPIN 96 80 In
FLAG 368 160 V+
IOPIN 368 160 In
FLAG 96 144 V-
IOPIN 96 144 In
FLAG 368 96 V-
IOPIN 368 96 In
FLAG -288 48 0
FLAG -496 80 0
FLAG -544 -64 V+
IOPIN -544 -64 Out
FLAG -432 -64 V-
IOPIN -432 -64 Out
FLAG -288 -64 Vin
IOPIN -288 -64 Out
FLAG 240 112 vo1
FLAG 496 128 vo2
SYMBOL OpAmps\\opamp2 96 48 R0
SYMATTR InstName U1
SYMATTR Value LM324
SYMBOL OpAmps\\opamp2 368 192 M180
SYMATTR InstName U2
SYMATTR Value LM324
SYMBOL res 304 336 R180
WINDOW 0 36 76 Left 2
WINDOW 3 36 40 Left 2
SYMATTR InstName R1
SYMATTR Value 10k
SYMBOL res 400 240 R270
WINDOW 0 32 56 VTop 2
WINDOW 3 0 56 VBottom 2
SYMATTR InstName R2
SYMATTR Value 12.361k
SYMBOL res -128 112 R270
WINDOW 0 32 56 VTop 2
WINDOW 3 0 56 VBottom 2
SYMATTR InstName R3
SYMATTR Value 1k
SYMBOL res 208 -32 R270
WINDOW 0 32 56 VTop 2
WINDOW 3 0 56 VBottom 2
SYMATTR InstName R4
SYMATTR Value 9k
SYMBOL voltage -544 -64 R0
WINDOW 123 0 0 Left 0
WINDOW 39 0 0 Left 0
SYMATTR InstName V1
SYMATTR Value 15
SYMBOL voltage -432 -64 R0
WINDOW 123 0 0 Left 0
WINDOW 39 0 0 Left 0
SYMATTR InstName V2
SYMATTR Value -15
SYMBOL voltage -288 -64 R0
WINDOW 123 24 44 Left 2
WINDOW 39 0 0 Left 0
SYMATTR Value2 AC 1
SYMATTR InstName V3
SYMATTR Value 1
TEXT -568 176 Left 2 !.include LM324_2P.lib
TEXT -568 216 Left 2 ;.tran 1
TEXT -560 256 Left 2 !.ac dec 10000 1 100Meg
TEXT -560 280 Left 2 ;.op
